I"â/Users/willley/Desktop/Class%20Work/rails-dynamic-request-readme-dc-web-060418/app/assets/javascripts/application.js?type=application/javascript&pipeline=self&id=24a368f30ba3ae88979925593faf7e9b4194d5459bf75769ebf3a414f360c7f7:ET