I"Ô/Users/willley/Desktop/Class%20Work/rails-dynamic-request-readme-dc-web-060418/app/assets/javascripts/application.js?type=application/javascript&id=76187b3bc6f33f0f37ef8f528fc8b31981a384594b92688e8cab150358b7188d:ET