I"Ç/Users/willley/Desktop/Class%20Work/rails-dynamic-request-readme-dc-web-060418/app/assets/stylesheets/application.css?type=text/css&id=1a1dd82806300c086c9590b4582c24175836d14fd2f7289ff4226ff82676ab90:ET