I"Õ/Users/willley/Desktop/Class%20Work/rails-dynamic-request-readme-dc-web-060418/app/assets/stylesheets/application.css?type=text/css&pipeline=self&id=7af1f98f11edb337627fc8d714ac83efa8e9c64912431f36bc0111c51a096b56:ET